127
Lattice="12.12 0.0 0.0 0.0 12.12 0.0 0.0 0.0 12.12" Properties=species:S:1:pos:R:3 pbc="T T T"
V        1.40469841       1.55346002       1.50141676
V       -0.10325199      -0.03770371       3.21937613
V        1.55944698       1.46374195       4.57504230
V       -0.01532643      -0.05338118       6.12674622
Cr       1.57220401       1.47984699       7.64340446
Cr       0.07238131      -0.00693505       9.06527583
Cr       1.52649777       1.58511518      10.56100718
Cr       0.05926558       3.15620809       0.01507620
V        1.50085586       4.53150024       1.56135327
Cr      -0.03323013       2.99387508       3.08767616
V        1.52108176       4.48403947       4.48847600
V        0.00330446       2.96827990       6.14561989
V        1.56536128       4.52592448       7.67387454
Cr       0.09305558       3.03826755       9.16184821
Cr       1.55808362       4.59085815      10.59921681
V        0.02182896       6.15379136       0.01171269
Cr       1.53672388       7.55265939       1.47679327
Cr      -0.04084352       6.08245536       3.02821968
V        1.50295798       7.51632913       4.51653844
V        0.00378054       6.03453981       6.09545818
Cr       1.55706854       7.57978359       7.57032446
Cr       0.04649341       6.08700230       9.10303273
V        1.58525928       7.61983355      10.53367325
V       -0.02604363       9.05375813      -0.09765503
V        1.45463492      10.60485882       1.40373569
V       -0.06332126       9.03882786       2.97227111
V        1.52713234      10.49428812       4.60114799
Cr      -0.02263453       9.07038681       6.06368966
Cr       1.56343120      10.60131115       7.54555774
V        0.01964472       9.15917938       9.04966446
Cr       1.54590059      10.64296447      10.49251305
V        3.04159160       0.01400687      -0.09745294
V        4.51149067       1.53751095       1.59781061
V        3.02104130      -0.11923198       2.99060924
V        4.58765493       1.43903999       4.55736373
Cr       3.04268570      -0.06457111       6.08533823
Cr       4.56103314       1.48036884       7.55282881
Cr       3.01132013       0.02718096       9.05077565
Cr       4.51742058       1.56308953      10.54889432
V        3.04549785       3.06297915      -0.02991985
Cr       4.53394339       4.55279599       1.54251046
Cr       3.06703680       3.01716400       3.04893293
Cr       4.57908945       4.47163373       4.54769373
V        3.08859297       2.96095641       6.10925767
V        4.62054197       4.53047122       7.60598648
Cr       3.05007702       2.98969421       9.11906421
V        4.59056482       4.61329240      10.55831134
V        3.06407782       6.09261453       0.00275660
Cr       4.54625376       7.55031190       1.44048462
Cr       3.07738234       6.03235037       2.99109115
Cr       4.54494575       7.51001247       4.53395183
V        3.06978940       6.02835489       6.03108567
V        4.58072570       7.58731508       7.56237278
Cr       3.05869034       6.09072832       9.10254968
Cr       4.56406506       7.60984440      10.56324202
Cr       3.03043646       9.08902487      -0.04784580
Cr       4.50705615      10.55895795       1.44639002
V        3.06467591       9.00621154       2.95514053
Cr       4.54516851      10.54854618       4.55693516
Cr       3.04469233       9.02970884       6.01025136
V        4.52512694      10.57352737       7.50952570
Cr       2.99882511       9.11172527       9.02397012
V        4.50178115      10.56242018      10.51499526
V        5.97653268       0.05243112      -0.00109594
Cr       7.52621295       1.56578254       1.62172298
Cr       6.03741881      -0.05078637       3.05378257
V        7.51678922       1.48796377       4.59655122
Cr       6.07578837      -0.05369901       6.06556826
Cr       7.57544367       1.52724198       7.55082431
V        6.04601743       0.05518583       9.01403185
V        7.55913514       1.60840093      10.59829365
V        6.05040567       3.09061263       0.06644057
Cr       7.56549939       4.58339778       1.57598237
Cr       6.06279556       3.06388307       3.05382452
Cr       7.57474196       4.50599957       4.57074839
Cr       6.08713879       2.98999217       6.06911483
V        7.57289651       4.59202887       7.57146669
Cr       6.06908352       3.01691387       9.09372654
V        7.56683465       4.65413322      10.58506975
Cr       6.06484296       6.12967862       0.03315888
Cr       7.52673544       7.57075764       1.49086664
V        6.03553893       6.00248337       3.00316342
V        7.55745278       7.50356396       4.56881185
Cr       6.06094190       6.01915441       5.99488217
V        7.56256008       7.55556163       7.56234396
Cr       6.08820099       6.11614063       9.10663364
Cr       7.53352446       7.61265590      10.56878011
Cr       6.01616651       9.06892961      -0.01791774
V        7.49669179      10.60989109       1.50979646
V        5.99888336       9.03143930       2.99454337
Cr       7.51276463      10.60071065       4.55637640
Cr       6.06681568       9.09673626       5.98982846
Cr       7.53626438      10.60572398       7.52069944
Cr       6.06315174       9.09861159       9.06369372
V        7.48877923      10.58880589      10.58146931
V        8.97033437       0.06143538       0.01959610
V       10.60561586       1.62483380       1.60484158
V        9.04954195       0.00225849       3.10327308
Cr      10.54642374       1.50888944       4.61672928
Cr       9.07882867      -0.04626780       6.09061644
V       10.65857092       1.49053149       7.66383771
V        9.12558716      -0.01242111       9.07593008
V       10.78835310       1.54014643      10.71447016
V        9.04862504       3.11282582       0.09398904
V       10.60832909       4.57182299       1.61768993
Cr       9.02421490       3.03224137       3.10525644
V       10.57493931       4.53130991       4.53728051
V        9.09532987       2.99797480       6.10369726
Cr      10.63378936       4.58386235       7.62327858
V        9.15033179       3.07330700       9.07294898
V       10.67374225       4.58550434      10.62535915
V        9.07766873       6.16488198       0.04456049
Cr      10.57092267       7.56264174       1.53220455
Cr       9.03226850       6.04688436       3.02395114
Cr      10.57770508       7.50414576       4.55233769
Cr       9.11212386       6.04170594       6.04387017
V       10.62457662       7.56275470       7.55703523
Cr       9.14349935       6.11907204       9.11794862
Cr      10.63176716       7.58565054      10.54798759
V        9.08263225       9.08309371      -0.03370880
V       10.59338446      10.69490585       1.46622381
V        9.05780257       9.05338625       3.03807619
Cr      10.56699746      10.56175658       4.58286020
V        9.09380064       9.12745131       6.02236535
Cr      10.62572942      10.60864930       7.54498581
V        9.12355343       9.14108439       9.06710819
Cr      10.61124415      10.68025143      10.55322804
127
Lattice="12.12 0.0 0.0 0.0 12.12 0.0 0.0 0.0 12.12" Properties=species:S:1:pos:R:3 pbc="T T T"
V        1.42722624       1.55298912       1.50755060
V       -0.09235971      -0.04068641       3.19743633
V        1.56337299       1.46144762       4.57686219
V       -0.01122676      -0.05188942       6.12416388
Cr       1.57197626       1.48228450       7.64999999
Cr       0.08775525       0.00607101       9.06839765
Cr       1.53279704       1.58255481      10.57164493
Cr       0.06086640       3.14332333       0.01417553
V        1.49921100       4.53190328       1.56078426
Cr      -0.02970932       2.99298593       3.08969974
V        1.51986821       4.48272645       4.48842235
V        0.00279975       2.96888826       6.14373119
V        1.56123160       4.53052755       7.67547491
Cr       0.09299241       3.04861081       9.15793980
Cr       1.55440736       4.59394564      10.60072279
V        0.01819550       6.15534828       0.01428333
Cr       1.53270492       7.55195477       1.47927753
Cr      -0.04329772       6.07836972       3.02870937
V        1.49938808       7.51661010       4.51978606
V       -0.00208403       6.03664812       6.09729468
Cr       1.55155360       7.58477804       7.57451159
Cr       0.03991101       6.09454968       9.10435272
V        1.57371294       7.63111971      10.53782078
V       -0.03486738       9.07395531      -0.09819227
V        1.45948837      10.60352639       1.40681869
V       -0.06503171       9.03240628       2.97962498
V        1.52908153      10.49507814       4.60431548
Cr      -0.02351763       9.07250635       6.06935399
Cr       1.56204940      10.60539879       7.55277791
V        0.00649206       9.17882196       9.06099703
Cr       1.55552076      10.65742905      10.50508235
V        3.04367100       0.01799964      -0.09002583
V        4.52318738       1.53562449       1.59626805
V        3.03520275      -0.11992073       2.99834978
V        4.59402205       1.43960721       4.55767820
Cr       3.04630172      -0.06337066       6.08800395
Cr       4.56355649       1.48341882       7.55269975
Cr       3.02054237       0.03423238       9.05365751
Cr       4.52259600       1.56725311      10.54756173
V        3.05268274       3.06733872      -0.03017152
Cr       4.53407890       4.55186268       1.53898474
Cr       3.07213996       3.01560936       3.04860566
Cr       4.57804657       4.47040228       4.54421843
V        3.08982733       2.96286607       6.10950624
V        4.61661647       4.53322583       7.60297610
Cr       3.05236692       2.99629165       9.11986193
V        4.58695884       4.61684181      10.55499782
V        3.05767450       6.09537095       0.00267891
Cr       4.54092534       7.55032951       1.43995225
Cr       3.07502730       6.03119020       2.99101571
Cr       4.54106513       7.50874349       4.53324243
V        3.06462146       6.02954676       6.03030788
V        4.57374778       7.58965352       7.56181982
Cr       3.05162243       6.09690099       9.10265296
Cr       4.55514296       7.61168580      10.56208254
Cr       3.02910607       9.08978957      -0.04704218
Cr       4.51120620      10.55856189       1.44763642
V        3.06209589       9.00602678       2.95647827
Cr       4.54749014      10.54731763       4.55843166
Cr       3.04184557       9.03088190       6.01372438
V        4.52540512      10.57532588       7.51056520
Cr       2.99385570       9.11568475       9.02491887
V        4.50394875      10.56464959      10.51453595
V        5.98411487       0.05154887      -0.00196467
Cr       7.53657066       1.56101817       1.61695076
Cr       6.04468896      -0.05489620       3.05331634
V        7.52389203       1.48419107       4.59135348
Cr       6.08025551      -0.05452792       6.06396470
Cr       7.57701995       1.52752562       7.54503866
V        6.04992304       0.05679945       9.01168797
V        7.56568611       1.60365972      10.59535696
V        6.05286579       3.08997952       0.06059796
Cr       7.56610293       4.57795201       1.57218203
Cr       6.06858535       3.06153955       3.04981026
Cr       7.57448023       4.50199956       4.56616924
Cr       6.08807932       2.98945952       6.06411499
V        7.56956942       4.59031431       7.56705262
Cr       6.06850516       3.01866438       9.08872059
V        7.56204478       4.65230756      10.57965911
Cr       6.05867270       6.12796763       0.02953301
Cr       7.52217052       7.56491497       1.49116970
V        6.03325493       5.99911645       2.99956142
V        7.55384794       7.50014993       4.56901281
Cr       6.05608407       6.01819193       5.99166786
V        7.55665642       7.55474441       7.56236789
Cr       6.08097621       6.11659428       9.10348833
Cr       7.52697584       7.61165438      10.56865855
Cr       6.01037873       9.06797059      -0.01735043
V        7.49926549      10.60618314       1.50867920
V        5.99681961       9.02877564       2.99522634
Cr       7.51478371      10.59631432       4.55709938
Cr       6.06411449       9.09600729       5.98966594
Cr       7.54003266      10.60540079       7.52296551
Cr       6.05812623       9.09816612       9.06274459
V        7.47173476      10.58828981      10.58587708
V        8.98131646       0.07101749       0.03029402
V       10.61500137       1.61314603       1.59383587
V        9.05570265      -0.00287009       3.10221282
Cr      10.55410108       1.50709767       4.61019224
Cr       9.08265917      -0.04787857       6.08557718
V       10.65982111       1.48677040       7.66177198
V        9.12887682      -0.01814561       9.07011471
V       10.77875452       1.56618139      10.70019809
V        9.04895359       3.11241694       0.08958892
V       10.61019026       4.56632532       1.61585857
Cr       9.03074342       3.02631204       3.10134586
V       10.57443107       4.52791298       4.53502769
V        9.09580188       2.99573944       6.09842461
Cr      10.62989524       4.58504460       7.61974195
V        9.14770170       3.07421843       9.06702758
V       10.67160504       4.58833522      10.62304674
V        9.07202797       6.15827579       0.04493495
Cr      10.56693914       7.55748476       1.53405314
Cr       9.02999394       6.04022377       3.02381636
Cr      10.57287242       7.50012725       4.55626879
Cr       9.10807535       6.03952693       6.04258435
V       10.61824962       7.56854602       7.56416639
Cr       9.13468616       6.11889520       9.11520432
Cr      10.62277420       7.57266635      10.55084252
V        9.06954748       9.06223526      -0.02896944
V       10.59011626      10.68312253       1.48776807
V        9.05680538       9.04744101       3.04116547
Cr      10.57080622      10.55866429       4.58290120
V        9.08947771       9.12419276       6.02623158
Cr      10.62813488      10.61496383       7.53593596
V        9.12201134       9.14311808       9.07400149
Cr      11.01731160      11.05453971      10.93921364
127
Lattice="12.12 0.0 0.0 0.0 12.12 0.0 0.0 0.0 12.12" Properties=species:S:1:pos:R:3 pbc="T T T"
V        1.44975407       1.55251823       1.51368445
V       -0.08146743      -0.04366911       3.17549653
V        1.56729901       1.45915330       4.57868209
V       -0.00712708      -0.05039765       6.12158153
Cr       1.57174852       1.48472201       7.65659552
Cr       0.10312919       0.01907707       9.07151947
Cr       1.53909631       1.57999445      10.58228269
Cr       0.06246723       3.13043857       0.01327486
V        1.49756614       4.53230633       1.56021525
Cr      -0.02618851       2.99209678       3.09172331
V        1.51865467       4.48141343       4.48836870
V        0.00229505       2.96949663       6.14184249
V        1.55710191       4.53513062       7.67707528
Cr       0.09292924       3.05895407       9.15403139
Cr       1.55073111       4.59703314      10.60222877
V        0.01456203       6.15690519       0.01685397
Cr       1.52868597       7.55125014       1.48176180
Cr      -0.04575192       6.07428409       3.02919907
V        1.49581817       7.51689106       4.52303367
V       -0.00794860       6.03875643       6.09913119
Cr       1.54603866       7.58977249       7.57869873
Cr       0.03332860       6.10209705       9.10567272
V        1.56216660       7.64240587      10.54196831
V       -0.04369113       9.09415249      -0.09872951
V        1.46434182      10.60219396       1.40990168
V       -0.06674217       9.02598470       2.98697885
V        1.53103072      10.49586816       4.60748297
Cr      -0.02440073       9.07462589       6.07501832
Cr       1.56066761      10.60948643       7.55999809
V       -0.00666060       9.19846455       9.07232960
Cr       1.56514093      10.67189363      10.51765166
V        3.04575040       0.02199241      -0.08259872
V        4.53488410       1.53373802       1.59472549
V        3.04936420      -0.12060949       3.00609033
V        4.60038918       1.44017442       4.55799268
Cr       3.04991773      -0.06217021       6.09066967
Cr       4.56607984       1.48646880       7.55257070
Cr       3.02976461       0.04128380       9.05653937
Cr       4.52777142       1.57141669      10.54622914
V        3.05986763       3.07169828      -0.03042319
Cr       4.53421441       4.55092936       1.53545902
Cr       3.07724311       3.01405471       3.04827839
Cr       4.57700368       4.46917083       4.54074313
V        3.09106168       2.96477574       6.10975481
V        4.61269097       4.53598044       7.59996571
Cr       3.05465683       3.00288909       9.12065966
V        4.58335286       4.62039122      10.55168429
V        3.05127117       6.09812737       0.00260121
Cr       4.53559692       7.55034711       1.43941989
Cr       3.07267226       6.03003003       2.99094027
Cr       4.53718451       7.50747451       4.53253302
V        3.05945352       6.03073862       6.02953009
V        4.56676986       7.59199196       7.56126686
Cr       3.04455452       6.10307365       9.10275624
Cr       4.54622086       7.61352720      10.56092306
Cr       3.02777569       9.09055428      -0.04623857
Cr       4.51535624      10.55816583       1.44888281
V        3.05951587       9.00584201       2.95781602
Cr       4.54981178      10.54608907       4.55992816
Cr       3.03899881       9.03205497       6.01719740
V        4.52568330      10.57712439       7.51160469
Cr       2.98888630       9.11964423       9.02586762
V        4.50611636      10.56687900      10.51407665
V        5.99169705       0.05066662      -0.00283341
Cr       7.54692837       1.55625381       1.61217854
Cr       6.05195910      -0.05900603       3.05285012
V        7.53099483       1.48041837       4.58615574
Cr       6.08472265      -0.05535683       6.06236114
Cr       7.57859623       1.52780926       7.53925301
V        6.05382865       0.05841307       9.00934409
V        7.57223708       1.59891851      10.59242026
V        6.05532592       3.08934641       0.05475535
Cr       7.56670647       4.57250624       1.56838168
Cr       6.07437514       3.05919604       3.04579601
Cr       7.57421851       4.49799955       4.56159009
Cr       6.08901986       2.98892687       6.05911516
V        7.56624234       4.58859974       7.56263856
Cr       6.06792680       3.02041489       9.08371463
V        7.55725492       4.65048190      10.57424847
Cr       6.05250243       6.12625664       0.02590715
Cr       7.51760560       7.55907230       1.49147275
V        6.03097093       5.99574953       2.99595943
V        7.55024310       7.49673590       4.56921377
Cr       6.05122623       6.01722944       5.98845356
V        7.55075276       7.55392719       7.56239182
Cr       6.07375144       6.11704793       9.10034301
Cr       7.52042723       7.61065285      10.56853699
Cr       6.00459095       9.06701158      -0.01678312
V        7.50183919      10.60247519       1.50756194
V        5.99475587       9.02611198       2.99590930
Cr       7.51680278      10.59191800       4.55782236
Cr       6.06141330       9.09527832       5.98950343
Cr       7.54380093      10.60507760       7.52523159
Cr       6.05310072       9.09772066       9.06179547
V        7.45469029      10.58777373      10.59028484
V        8.99229855       0.08059959       0.04099194
V       10.62438688       1.60145825       1.58283016
V        9.06186334      -0.00799867       3.10115255
Cr      10.56177843       1.50530590       4.60365520
Cr       9.08648968      -0.04948934       6.08053793
V       10.66107129       1.48300931       7.65970626
V        9.13216649      -0.02387011       9.06429933
V       10.76915595       1.59221634      10.68592602
V        9.04928215       3.11200805       0.08518880
V       10.61205143       4.56082764       1.61402722
Cr       9.03727194       3.02038271       3.09743528
V       10.57392282       4.52451606       4.53277487
V        9.09627388       2.99350407       6.09315196
Cr      10.62600113       4.58622686       7.61620532
V        9.14507161       3.07512985       9.06110618
V       10.66946783       4.59116610      10.62073434
V        9.06638720       6.15166960       0.04530941
Cr      10.56295561       7.55232778       1.53590173
Cr       9.02771938       6.03356318       3.02368158
Cr      10.56803975       7.49610874       4.56019989
Cr       9.10402684       6.03734791       6.04129854
V       10.61192261       7.57433735       7.57129755
Cr       9.12587297       6.11871835       9.11246003
Cr      10.61378124       7.55968216      10.55369745
V        9.05646270       9.04137681      -0.02423009
V       10.58684805      10.67133920       1.50931233
V        9.05580818       9.04149577       3.04425475
Cr      10.57461498      10.55557200       4.58294220
V        9.08515478       9.12093421       6.03009780
Cr      10.63054034      10.62127836       7.52688610
V        9.12046926       9.14515176       9.08089480
Cr      11.42337905      11.42882799      11.32519923
127
Lattice="12.12 0.0 0.0 0.0 12.12 0.0 0.0 0.0 12.12" Properties=species:S:1:pos:R:3 pbc="T T T"
V        1.47228190       1.55204734       1.51981829
V       -0.07057515      -0.04665181       3.15355674
V        1.57122502       1.45685897       4.58050198
V       -0.00302740      -0.04890589       6.11899919
Cr       1.57152077       1.48715952       7.66319105
Cr       0.11850313       0.03208314       9.07464128
Cr       1.54539558       1.57743409      10.59292045
Cr       0.06406806       3.11755381       0.01237418
V        1.49592128       4.53270937       1.55964625
Cr      -0.02266771       2.99120763       3.09374688
V        1.51744113       4.48010041       4.48831505
V        0.00179034       2.97010499       6.13995379
V        1.55297222       4.53973369       7.67867565
Cr       0.09286606       3.06929733       9.15012298
Cr       1.54705486       4.60012064      10.60373475
V        0.01092856       6.15846210       0.01942461
Cr       1.52466701       7.55054551       1.48424606
Cr      -0.04820612       6.07019845       3.02968877
V        1.49224827       7.51717202       4.52628128
V       -0.01381318       6.04086474       6.10096770
Cr       1.54052372       7.59476694       7.58288587
Cr       0.02674620       6.10964442       9.10699271
V        1.55062027       7.65369203      10.54611584
V       -0.05251488       9.11434967      -0.09926676
V        1.46919528      10.60086153       1.41298468
V       -0.06845262       9.01956313       2.99433271
V        1.53297990      10.49665818       4.61065046
Cr      -0.02528383       9.07674543       6.08068264
Cr       1.55928581      10.61357406       7.56721827
V       -0.01981326       9.21810713       9.08366218
Cr       1.57476109      10.68635821      10.53022096
V        3.04782980       0.02598518      -0.07517161
V        4.54658081       1.53185156       1.59318293
V        3.06352565      -0.12129825       3.01383087
V        4.60675630       1.44074164       4.55830716
Cr       3.05353375      -0.06096976       6.09333538
Cr       4.56860318       1.48951877       7.55244164
Cr       3.03898685       0.04833522       9.05942123
Cr       4.53294684       1.57558027      10.54489655
V        3.06705251       3.07605784      -0.03067487
Cr       4.53434991       4.54999605       1.53193330
Cr       3.08234627       3.01250006       3.04795112
Cr       4.57596080       4.46793937       4.53726783
V        3.09229604       2.96668540       6.11000338
V        4.60876547       4.53873505       7.59695532
Cr       3.05694673       3.00948652       9.12145738
V        4.57974688       4.62394064      10.54837076
V        3.04486784       6.10088380       0.00252352
Cr       4.53026850       7.55036472       1.43888752
Cr       3.07031722       6.02886986       2.99086484
Cr       4.53330389       7.50620552       4.53182362
V        3.05428558       6.03193048       6.02875230
V        4.55979193       7.59433039       7.56071389
Cr       3.03748661       6.10924632       9.10285953
Cr       4.53729875       7.61536860      10.55976358
Cr       3.02644531       9.09131898      -0.04543496
Cr       4.51950629      10.55776978       1.45012921
V        3.05693586       9.00565725       2.95915377
Cr       4.55213342      10.54486051       4.56142466
Cr       3.03615205       9.03322803       6.02067042
V        4.52596148      10.57892290       7.51264418
Cr       2.98391689       9.12360370       9.02681637
V        4.50828396      10.56910842      10.51361734
V        5.99927924       0.04978436      -0.00370215
Cr       7.55728608       1.55148945       1.60740632
Cr       6.05922925      -0.06311586       3.05238390
V        7.53809764       1.47664567       4.58095800
Cr       6.08918978      -0.05618574       6.06075758
Cr       7.58017251       1.52809290       7.53346737
V        6.05773426       0.06002669       9.00700021
V        7.57878805       1.59417730      10.58948357
V        6.05778605       3.08871330       0.04891274
Cr       7.56731001       4.56706046       1.56458134
Cr       6.08016494       3.05685252       3.04178175
Cr       7.57395678       4.49399954       4.55701094
Cr       6.08996039       2.98839422       6.05411532
V        7.56291525       4.58688518       7.55822449
Cr       6.06734844       3.02216541       9.07870868
V        7.55246505       4.64865624      10.56883784
Cr       6.04633217       6.12454565       0.02228129
Cr       7.51304068       7.55322963       1.49177581
V        6.02868694       5.99238261       2.99235744
V        7.54663825       7.49332188       4.56941473
Cr       6.04636840       6.01626695       5.98523926
V        7.54484911       7.55310997       7.56241576
Cr       6.06652666       6.11750158       9.09719770
Cr       7.51387862       7.60965133      10.56841543
Cr       5.99880317       9.06605256      -0.01621581
V        7.50441289      10.59876723       1.50644468
V        5.99269213       9.02344832       2.99659227
Cr       7.51882186      10.58752167       4.55854534
Cr       6.05871211       9.09454934       5.98934091
Cr       7.54756921      10.60475441       7.52749767
Cr       6.04807520       9.09727520       9.06084634
V        7.43764582      10.58725765      10.59469261
V        9.00328063       0.09018169       0.05168986
V       10.63377239       1.58977048       1.57182444
V        9.06802404      -0.01312725       3.10009229
Cr      10.56945577       1.50351413       4.59711816
Cr       9.09032018      -0.05110011       6.07549867
V       10.66232147       1.47924822       7.65764054
V        9.13545615      -0.02959461       9.05848396
V       10.75955738       1.61825130      10.67165395
V        9.04961071       3.11159917       0.08078868
V       10.61391260       4.55532997       1.61219586
Cr       9.04380046       3.01445338       3.09352471
V       10.57341458       4.52111914       4.53052204
V        9.09674589       2.99126871       6.08787931
Cr      10.62210701       4.58740912       7.61266869
V        9.14244152       3.07604127       9.05518479
V       10.66733062       4.59399698      10.61842193
V        9.06074644       6.14506341       0.04568388
Cr      10.55897208       7.54717080       1.53775032
Cr       9.02544482       6.02690259       3.02354681
Cr      10.56320709       7.49209024       4.56413099
Cr       9.09997833       6.03516889       6.04001273
V       10.60559560       7.58012867       7.57842871
Cr       9.11705979       6.11854150       9.10971573
Cr      10.60478828       7.54669797      10.55655238
V        9.04337793       9.02051836      -0.01949074
V       10.58357985      10.65955587       1.53085659
V        9.05481099       9.03555053       3.04734403
Cr      10.57842374      10.55247971       4.58298321
V        9.08083185       9.11767566       6.03396403
Cr      10.63294580      10.62759289       7.51783625
V        9.11892718       9.14718544       9.08778810
Cr      11.82944650      11.80311626      11.71118482
127
Lattice="12.12 0.0 0.0 0.0 12.12 0.0 0.0 0.0 12.12" Properties=species:S:1:pos:R:3 pbc="T T T"
V        1.49480973       1.55157644       1.52595213
V       -0.05968288      -0.04963451       3.13161694
V        1.57515104       1.45456464       4.58232187
V        0.00107227      -0.04741413       6.11641685
Cr       1.57129302       1.48959704       7.66978658
Cr       0.13387707       0.04508920       9.07776310
Cr       1.55169485       1.57487372      10.60355821
Cr       0.06566888       3.10466906       0.01147351
V        1.49427643       4.53311241       1.55907724
Cr      -0.01914690       2.99031848       3.09577046
V        1.51622758       4.47878739       4.48826140
V        0.00128563       2.97071335       6.13806509
V        1.54884254       4.54433675       7.68027602
Cr       0.09280289       3.07964059       9.14621458
Cr       1.54337860       4.60320813      10.60524073
V        0.00729510       6.16001901       0.02199525
Cr       1.52064806       7.54984088       1.48673033
Cr      -0.05066032       6.06611282       3.03017846
V        1.48867837       7.51745298       4.52952889
V       -0.01967775       6.04297305       6.10280420
Cr       1.53500878       7.59976139       7.58707300
Cr       0.02016379       6.11719180       9.10831270
V        1.53907393       7.66497819      10.55026337
V       -0.06133863       9.13454685      -0.09980400
V        1.47404873      10.59952910       1.41606768
V       -0.07016307       9.01314155       3.00168658
V        1.53492909      10.49744820       4.61381795
Cr      -0.02616693       9.07886497       6.08634697
Cr       1.55790401      10.61766170       7.57443844
V       -0.03296593       9.23774971       9.09499475
Cr       1.58438126      10.70082279      10.54279026
V        3.04990920       0.02997795      -0.06774450
V        4.55827753       1.52996509       1.59164037
V        3.07768710      -0.12198700       3.02157142
V        4.61312343       1.44130886       4.55862164
Cr       3.05714977      -0.05976931       6.09600110
Cr       4.57112653       1.49256875       7.55231258
Cr       3.04820909       0.05538664       9.06230309
Cr       4.53812227       1.57974384      10.54356396
V        3.07423740       3.08041741      -0.03092654
Cr       4.53448542       4.54906273       1.52840758
Cr       3.08744943       3.01094542       3.04762385
Cr       4.57491792       4.46670792       4.53379253
V        3.09353040       2.96859507       6.11025195
V        4.60483998       4.54148966       7.59394494
Cr       3.05923663       3.01608396       9.12225511
V        4.57614089       4.62749005      10.54505723
V        3.03846451       6.10364022       0.00244583
Cr       4.52494008       7.55038233       1.43835515
Cr       3.06796218       6.02770969       2.99078940
Cr       4.52942326       7.50493654       4.53111421
V        3.04911764       6.03312235       6.02797451
V        4.55281401       7.59666883       7.56016093
Cr       3.03041870       6.11541899       9.10296281
Cr       4.52837665       7.61720999      10.55860410
Cr       3.02511492       9.09208369      -0.04463134
Cr       4.52365634      10.55737372       1.45137561
V        3.05435584       9.00547249       2.96049152
Cr       4.55445506      10.54363196       4.56292116
Cr       3.03330529       9.03440110       6.02414344
V        4.52623966      10.58072141       7.51368368
Cr       2.97894749       9.12756318       9.02776512
V        4.51045156      10.57133783      10.51315803
V        6.00686143       0.04890211      -0.00457089
Cr       7.56764379       1.54672508       1.60263411
Cr       6.06649939      -0.06722569       3.05191768
V        7.54520045       1.47287297       4.57576025
Cr       6.09365692      -0.05701465       6.05915402
Cr       7.58174879       1.52837653       7.52768172
V        6.06163987       0.06164031       9.00465632
V        7.58533902       1.58943609      10.58654688
V        6.06024617       3.08808019       0.04307013
Cr       7.56791355       4.56161469       1.56078100
Cr       6.08595473       3.05450900       3.03776749
Cr       7.57369506       4.48999953       4.55243179
Cr       6.09090093       2.98786158       6.04911549
V        7.55958817       4.58517061       7.55381042
Cr       6.06677009       3.02391592       9.07370273
V        7.54767519       4.64683057      10.56342720
Cr       6.04016190       6.12283466       0.01865543
Cr       7.50847576       7.54738696       1.49207887
V        6.02640294       5.98901569       2.98875544
V        7.54303341       7.48990785       4.56961569
Cr       6.04151056       6.01530446       5.98202495
V        7.53894545       7.55229275       7.56243969
Cr       6.05930189       6.11795523       9.09405238
Cr       7.50733001       7.60864981      10.56829387
Cr       5.99301539       9.06509354      -0.01564850
V        7.50698659      10.59505928       1.50532742
V        5.99062839       9.02078466       2.99727524
Cr       7.52084093      10.58312535       4.55926832
Cr       6.05601092       9.09382037       5.98917840
Cr       7.55133748      10.60443122       7.52976375
Cr       6.04304969       9.09682974       9.05989721
V        7.42060135      10.58674158      10.59910038
V        9.01426272       0.09976379       0.06238778
V       10.64315790       1.57808271       1.56081873
V        9.07418473      -0.01825583       3.09903203
Cr      10.57713311       1.50172236       4.59058112
Cr       9.09415068      -0.05271088       6.07045942
V       10.66357166       1.47548714       7.65557482
V        9.13874582      -0.03531912       9.05266858
V       10.74995880       1.64428625      10.65738188
V        9.04993927       3.11119028       0.07638856
V       10.61577377       4.54983229       1.61036451
Cr       9.05032898       3.00852406       3.08961413
V       10.57290633       4.51772222       4.52826922
V        9.09721790       2.98903334       6.08260666
Cr      10.61821289       4.58859138       7.60913205
V        9.13981143       3.07695270       9.04926339
V       10.66519341       4.59682786      10.61610953
V        9.05510567       6.13845722       0.04605834
Cr      10.55498855       7.54201382       1.53959891
Cr       9.02317026       6.02024199       3.02341203
Cr      10.55837443       7.48807173       4.56806209
Cr       9.09592982       6.03298988       6.03872691
V       10.59926860       7.58592000       7.58555987
Cr       9.10824660       6.11836466       9.10697144
Cr      10.59579532       7.53371378      10.55940731
V        9.03029315       8.99965991      -0.01475138
V       10.58031164      10.64777255       1.55240084
V        9.05381379       9.02960529       3.05043330
Cr      10.58223250      10.54938742       4.58302421
V        9.07650892       9.11441710       6.03783026
Cr      10.63535125      10.63390743       7.50878640
V        9.11738509       9.14921913       9.09468141
Cr       0.11551395       0.05740454      -0.02282959
